*rser cout 5V
.include ../AE01.07.16.012.cir
.param VIN=12
.step param Rser_Cout list 0.125 0.25 0.5
.param ILOAD=0.5
.param Rfb=60.4k
.param Rref=20k
.tran 0 1m 0 uic
