*line regulation 5V
.include ../AE01.07.16.012.cir
.step param VIN list 9 12 18
.param Rser_Cout=0.5
.param ILOAD=0.5
.param Rfb=60.4k
.param Rref=20k
.tran 0 1m 0 uic
